LTspice 24.0.12 for Windows
Circuit: * C:\users\jose\Documents\tfg2\A7F2-42A7\Draft1.asc
Start Time: Mon Oct 21 20:24:24 2024
Number of points per decade reduced from 10000 to 7244.
solver = Normal
Maximum thread count: 8
tnom = 27
temp = 27
method = modified trap
.OP point found by inspection.
Total elapsed time: 0.155 seconds.

