Circuit: * Z:\media\jose\A7F2-42A7\freq-bpf.asc

WARNING: Node NC_01 is floating.

WARNING: Less than two connections to node NC_01.  This node is used by C23.

Date: Fri Jul 19 20:03:41 2024
Total elapsed time: 0.329 seconds.

tnom = 27
temp = 27
method = trap
totiter = 0
traniter = 0
tranpoints = 0
accept = 0
rejected = 0
matrix size = 14
fillins = 1
solver = Normal

