Circuit: * Z:\run\media\jose\A7F2-42A7\if_amp_2meg.asc

Warning: Multiple definitions of model "2scr375p" Type: BJT
Warning: Multiple definitions of model "bc857b" Type: BJT
Warning: Multiple definitions of model "bc847c" Type: BJT
Warning: Multiple definitions of model "bc847b" Type: BJT
Number of points per decade reduced from 10000 to 7244.
Direct Newton iteration for .op point succeeded.

Date: Tue Aug 13 13:38:31 2024
Total elapsed time: 4.148 seconds.

tnom = 27
temp = 27
method = trap
totiter = 10
traniter = 0
tranpoints = 0
accept = 0
rejected = 0
matrix size = 22
fillins = 28
solver = Normal
Avg thread counts: 8.0/0.0/8.0/1.0
Matrix Compiler1:     173 opcodes
Matrix Compiler2:     176 opcodes
