Circuit: * Z:\media\jose\A7F2-42A7\mixer.asc

WARNING: Node N002 is floating.

WARNING: Less than two connections to node N002.  This node is used by C3.
Direct Newton iteration for .op point succeeded.

Date: Sat Jul 20 11:23:08 2024
Total elapsed time: 0.819 seconds.

tnom = 27
temp = 27
method = modified trap
totiter = 134361
traniter = 134354
tranpoints = 53567
accept = 34410
rejected = 19157
matrix size = 15
fillins = 2
solver = Normal
Matrix Compiler1: 748 bytes object code size  0.6/0.5/[0.5]
Matrix Compiler2: 1.08 KB object code size  0.5/0.6/[0.4]

