Circuit: * Z:\media\jose\A7F2-42A7\mixer_bjt.asc

Warning: Multiple definitions of model "2scr375p" Type: BJT
Warning: Multiple definitions of model "bc857b" Type: BJT
Warning: Multiple definitions of model "bc847c" Type: BJT
Warning: Multiple definitions of model "bc847b" Type: BJT
Direct Newton iteration for .op point succeeded.

Date: Thu Jul 18 20:15:22 2024
Total elapsed time: 0.664 seconds.

tnom = 27
temp = 27
method = modified trap
totiter = 156004
traniter = 155997
tranpoints = 55914
accept = 35874
rejected = 20040
matrix size = 12
fillins = 1
solver = Normal
Matrix Compiler1: 588 bytes object code size  0.5/0.4/[0.4]
Matrix Compiler2: 920 bytes object code size  0.4/0.5/[0.3]

