Circuit: * Z:\run\media\jose\A7F2-42A7\radio_2.asc

Warning: Multiple definitions of model "2scr375p" Type: BJT
Warning: Multiple definitions of model "bc857b" Type: BJT
Warning: Multiple definitions of model "bc847c" Type: BJT
Warning: Multiple definitions of model "bc847b" Type: BJT
Limiting rise time of source v3 to 5e-06
Limiting fall time of source v3 to 5e-06
WARNING: Node N001 is floating.

WARNING: Less than two connections to node nc_01.  This node is used by l4.
Direct Newton iteration for .op point succeeded.

Date: Thu Aug 22 13:22:07 2024
Total elapsed time: 14.797 seconds.

tnom = 27
temp = 27
method = modified trap
totiter = 1054954
traniter = 1054940
tranpoints = 527460
accept = 329895
rejected = 197565
matrix size = 39
fillins = 37
solver = Normal
Avg thread counts: 1.0/1.0/1.0/1.0
Matrix Compiler1:     257 opcodes  2.6/2.4/[1.5]
Matrix Compiler2:     296 opcodes
