Circuit: * Z:\run\media\jose\A7F2-42A7\smith-trig.asc

Direct Newton iteration failed to find .op point.  (Use ".option noopiter" to skip.)
Starting Gmin stepping
Gmin = 10
Gmin = 1.07374
Gmin = 0.115292
Gmin = 0.0123794
Gmin = 0.00132923
Gmin = 0.000142725
Gmin = 1.5325e-05
Gmin = 1.6455e-06
Gmin = 1.76685e-07
Gmin = 1.89714e-08
Gmin = 2.03704e-09
Gmin = 2.18725e-10
Gmin = 2.34854e-11
Gmin = 2.52173e-12
Gmin = 2.70769e-13
Gmin = 0
Gmin stepping succeeded in finding the operating point.


Date: Wed Aug 28 13:18:09 2024
Total elapsed time: 4.567 seconds.

tnom = 27
temp = 27
method = modified trap
totiter = 326706
traniter = 326300
tranpoints = 114785
accept = 83008
rejected = 31777
matrix size = 21
fillins = 19
solver = Normal
Avg thread counts: 1.0/1.0/1.0/1.0
Matrix Compiler1: 2.94 KB object code size  3.1/2.2/[1.5]
Matrix Compiler2: 2.18 KB object code size  0.3/0.4/[0.3]

