Circuit: * Z:\run\media\jose\A7F2-42A7\smith-trig-2.asc

Warning: Multiple definitions of model "2scr375p" Type: BJT
Warning: Multiple definitions of model "bc857b" Type: BJT
Warning: Multiple definitions of model "bc847c" Type: BJT
Warning: Multiple definitions of model "bc847b" Type: BJT
WARNING: Less than two connections to node nc_01.  This node is used by r8.
Direct Newton iteration for .op point succeeded.

Date: Mon Sep  2 11:24:35 2024
Total elapsed time: 0.502 seconds.

tnom = 27
temp = 27
method = modified trap
totiter = 27053
traniter = 27027
tranpoints = 8944
accept = 6553
rejected = 2391
matrix size = 24
fillins = 12
solver = Normal
Avg thread counts: 1.1/1.3/1.3/1.1
Matrix Compiler1:     127 opcodes  1.8/[1.4]/1.7
Matrix Compiler2:     170 opcodes
