LTspice 24.0.12 for Windows
Circuit: * C:\users\jose\Documents\tfg2\A7F2-42A7\Super-regen2.asc
Start Time: Sun Oct 13 12:11:57 2024
Warning: Multiple definitions of model "2scr375p" Type: BJT
Warning: Multiple definitions of model "bc857b" Type: BJT
Warning: Multiple definitions of model "bc847c" Type: BJT
Warning: Multiple definitions of model "bc847b" Type: BJT
solver = Normal
Maximum thread count: 8
tnom = 27
temp = 27
method = modified trap
Limiting rise time of source v3 to 5e-06
Limiting fall time of source v3 to 5e-06
Direct Newton iteration for .op point succeeded.
Heightened Def Con from 0.000479871 to 0.000479871
Total elapsed time: 8.651 seconds.

