Circuit: * Z:\run\media\jose\A7F2-42A7\Super-regen.asc

Warning: Multiple definitions of model "2scr375p" Type: BJT
Warning: Multiple definitions of model "bc857b" Type: BJT
Warning: Multiple definitions of model "bc847c" Type: BJT
Warning: Multiple definitions of model "bc847b" Type: BJT
Direct Newton iteration for .op point succeeded.

Date: Tue Aug 20 22:20:44 2024
Total elapsed time: 2.688 seconds.

tnom = 27
temp = 27
method = modified trap
totiter = 247688
traniter = 247677
tranpoints = 92130
accept = 63632
rejected = 28498
matrix size = 17
fillins = 12
solver = Normal
Avg thread counts: 1.0/1.0/1.0/1.0
Matrix Compiler1:     101 opcodes  1.5/1.2/[1.3]
Matrix Compiler2: off
