LTspice 24.0.12 for Windows
Circuit: * C:\users\jose\Documents\tfg2_original\A7F2-42A7\transmitter.asc
Start Time: Sat Oct 26 10:56:31 2024
Warning: Multiple definitions of model "2scr375p" Type: BJT
Warning: Multiple definitions of model "bc857b" Type: BJT
Warning: Multiple definitions of model "bc847c" Type: BJT
Warning: Multiple definitions of model "bc847b" Type: BJT
solver = Normal
Maximum thread count: 8
tnom = 27
temp = 27
method = modified trap
Limiting rise time of source v3 to 5e-06
Limiting fall time of source v3 to 5e-06
Direct Newton iteration for .op point succeeded.
Total elapsed time: 4.167 seconds.

